Version 4
SHEET 1 880 680
WIRE 80 128 80 48
WIRE 112 128 80 128
WIRE 384 128 112 128
WIRE 448 240 448 192
WIRE 448 240 384 240
WIRE 112 272 112 128
WIRE 448 272 448 240
WIRE 176 336 176 192
WIRE 384 336 384 240
WIRE 176 432 176 336
SYMBOL cktsym\\npn 176 128 R0
SYMATTR Value MAT14
SYMATTR InstName Q1
SYMBOL cktsym\\npn 448 128 R0
SYMATTR Value MAT14
SYMATTR InstName Q2
SYMBOL cktsym\\npn 448 336 R0
SYMATTR Value MAT14
SYMATTR InstName Q3
SYMBOL cktsym\\npn 112 336 M0
SYMATTR Value MAT14
SYMATTR InstName Q4
SYMBOL cktsym\\isource 80 -16 R0
SYMATTR Value 10µ
SYMATTR InstName Ix
SYMBOL cktsym\\isource 176 496 R0
SYMATTR Value 1m
SYMATTR InstName Iy
SYMBOL cktsym\\vdd 176 64 R0
SYMATTR InstName U1
SYMBOL cktsym\\vdd 448 48 R0
SYMATTR InstName U2
SYMBOL cktsym\\gnd 448 400 R0
SYMATTR InstName U3
SYMBOL cktsym\\gnd 112 400 R0
SYMATTR InstName U4
SYMBOL cktsym\\vdd 80 -80 R0
SYMATTR InstName U5
SYMBOL cktsym\\gnd 176 560 R0
SYMATTR InstName U6
SYMBOL cktsym\\ammeter2 448 48 R0
SYMATTR InstName Iz
SYMBOL cktsym\\vsource -144 192 R0
SYMATTR Value 5
SYMATTR InstName vdd
SYMBOL cktsym\\vdd -144 128 R0
SYMATTR InstName U7
SYMBOL cktsym\\gnd -144 256 R0
SYMATTR InstName U8
TEXT -248 512 Left 2 !.include engr2420.sub
TEXT -250 604 Left 2 !.dc dec Iy 10n 10m 10
