Version 4
SHEET 1 880 680
WIRE 208 144 112 144
WIRE 208 208 208 144
WIRE 208 208 176 208
WIRE 240 208 208 208
WIRE 176 272 112 272
WIRE 368 272 304 272
WIRE 176 336 176 272
SYMBOL cktsym\\npn 304 208 R0
SYMATTR Value MAT14
SYMATTR InstName Q1
SYMBOL cktsym\\npn 432 272 R0
SYMATTR Value MAT14
SYMATTR InstName Q2
SYMBOL cktsym\\npn 112 336 M0
SYMATTR Value MAT14
SYMATTR InstName Q4
SYMBOL cktsym\\isource 112 80 R0
SYMATTR Value 1µ
SYMATTR InstName Ix
SYMBOL cktsym\\isource 304 336 R0
SYMATTR Value 1µ
SYMATTR InstName Iy
SYMBOL cktsym\\vdd 304 144 R0
SYMATTR InstName U1
SYMBOL cktsym\\vdd 432 192 R0
SYMATTR InstName U2
SYMBOL cktsym\\gnd 432 336 R0
SYMATTR InstName U3
SYMBOL cktsym\\gnd 112 400 R0
SYMATTR InstName U4
SYMBOL cktsym\\vdd 112 16 R0
SYMATTR InstName U5
SYMBOL cktsym\\gnd 304 400 R0
SYMATTR InstName U6
SYMBOL cktsym\\ammeter2 432 192 R0
SYMATTR InstName Iz
SYMBOL cktsym\\vsource -144 192 R0
SYMATTR Value 5
SYMATTR InstName vdd
SYMBOL cktsym\\vdd -144 128 R0
SYMATTR InstName U7
SYMBOL cktsym\\gnd -144 256 R0
SYMATTR InstName U8
SYMBOL cktsym\\npn 112 208 M0
SYMATTR Value MAT14
SYMATTR InstName Q3
